Circuit: *** SPICE deck for cell nand{lay} from library Digital

Ignoring BSIM parameter XL
Ignoring BSIM parameter XW
Ignoring BSIM parameter XL
Ignoring BSIM parameter XW
Direct Newton iteration for .op point succeeded.

Date: Sat Apr 24 14:01:44 2021
Total elapsed time: 0.176 seconds.

tnom = 27
temp = 27
method = modified trap
totiter = 2596
traniter = 2573
tranpoints = 1222
accept = 1173
rejected = 49
matrix size = 10
fillins = 0
solver = Normal
Matrix Compiler1: 472 bytes object code size  0.2/0.1/[0.1]
Matrix Compiler2: off  [0.1]/0.4/0.2

