Circuit: *** SPICE deck for cell nor{lay} from library Digital

Ignoring BSIM parameter XL
Ignoring BSIM parameter XW
Ignoring BSIM parameter XL
Ignoring BSIM parameter XW
Direct Newton iteration for .op point succeeded.

Date: Sat Apr 24 14:27:35 2021
Total elapsed time: 0.197 seconds.

tnom = 27
temp = 27
method = modified trap
totiter = 2603
traniter = 2579
tranpoints = 1225
accept = 1173
rejected = 52
matrix size = 10
fillins = 0
solver = Normal
Matrix Compiler1: 400 bytes object code size  0.2/0.1/[0.1]
Matrix Compiler2: off  [0.2]/0.3/0.8

