*
*
*
*                       LINUX           Mon Mar 29 12:04:29 2021
*
*
*
*  PROGRAM  advgen
*
*  Name           : advgen - Quantus QRC - (64-bit)
*  Version        : 18.1.2-s132
*  Build Date     : Thu May 10 00:43:37 PDT 2018
*
*  HSPICE LIBRARY
*
*!LENGTH_UNITS METERS
*
*
*

*
.SUBCKT nand Vdd Vss A B Vout
*
*
*  caps2d version: 10
*
*
*       TRANSISTOR CARDS
*
*
MavD21_1	avC6#2	A#4	Vout#5	Vss#3	nmos#20ivpcell#20gpdk180
+ L=1.8e-07	W=2e-06
+ AD=1.2e-12	AS=1.2e-12	PD=5.2e-06	PS=5.2e-06
+ simW=2e-06 fw=2e-06
MavD21_2	Vss#1	B#3	avC6	Vss#3	nmos#20ivpcell#20gpdk180
+ L=1.8e-07	W=2e-06
+ AD=1.2e-12	AS=1.2e-12	PD=5.2e-06	PS=5.2e-06
+ simW=2e-06 fw=2e-06
MavD27_1	Vdd#4	A#2	Vout#4	Vdd#5	pmos#20ivpcell#20gpdk180
+ L=1.8e-07	W=2e-06
+ AD=1.2e-12	AS=1.2e-12	PD=5.2e-06	PS=5.2e-06
+ simW=2e-06 fw=2e-06
MavD27_2	Vout#1	B#4	Vdd#2	Vdd#5	pmos#20ivpcell#20gpdk180
+ L=1.8e-07	W=2e-06
+ AD=1.2e-12	AS=1.2e-12	PD=5.2e-06	PS=5.2e-06
+ simW=2e-06 fw=2e-06
*
*
*       RESISTOR AND CAP/DIODE CARDS
*
Rf1	A	A#1	    5.0000	$mt1	$X=2.52 $Y=5.75
Rf2	avC6	avC6#2	    3.5500	$mt1	$X=5.425 $Y=3.94
Rf3	Vout#1	Vout#2	    2.7162	$mt1	$X=5.748 $Y=5.815
Rf4	Vout#2	Vout#3	    0.2187	$mt1	$X=4.195 $Y=5.34
Rf5	Vout#3	Vout	    0.4754	$mt1	$X=3.3105 $Y=4.915
Rf6	Vout#2	Vout#4	    2.1824	$mt1	$X=4.195 $Y=6.3375
Rf7	Vout#3	Vout#5	    1.9912	$mt1	$X=4.1945 $Y=4.765
Rf8	B	B#1	    5.0000	$mt1	$X=7.715 $Y=5.615
Rf9	Vss#1	Vss#2	    2.1901	$mt1	$X=6.655 $Y=2.6105
Rf10	Vss#2	Vss	    0.5743	$mt1	$X=5.6855 $Y=2.03
Rf11	Vss#2	Vss#3	    7.7326	$mt1	$X=7.18 $Y=2.03
Rf12	Vdd	Vdd#1	    0.3143	$mt1	$X=5.295 $Y=9.68
Rf13	Vdd#1	Vdd#3	    0.4926	$mt1	$X=5.875 $Y=8.995
Rf14	Vdd#3	Vdd#4	    1.8000	$mt1	$X=5.425 $Y=7.56
Rf15	Vdd#1	Vdd#5	    8.2541	$mt1	$X=7.1 $Y=9.68
Rf16	Vdd#2	Vdd#3	    1.7500	$mt1	$X=5.875 $Y=7.56
Rg1	A#2	A#3	   33.4629	$poly	$X=4.585 $Y=6.2005
Rg2	A#3	A#1	   75.2880	$poly	$X=3.6575 $Y=5.75
Rg3	A#3	A#4	   33.4629	$poly	$X=4.585 $Y=5.3
Rg4	B#1	B#2	   49.6630	$poly	$X=6.885 $Y=5.615
Rg5	B#2	B#3	   27.8379	$poly	$X=6.265 $Y=5.2325
Rg6	B#2	B#4	   39.0879	$poly	$X=6.265 $Y=6.1325
*
*       CAPACITOR CARDS
*
*
C1	Vdd	Vss	cmodel	5.28393E-16	$X=2.7405 $Y=5.9905
C2	B	Vss	cmodel	8.16409E-17	$X=7.2965 $Y=5.307
C3	Vout	Vss	cmodel	1.46884E-16	$X=2.8855 $Y=4.5445
C4	avC6	Vss	cmodel	2.53407E-16	$X=4.085 $Y=2.829
C5	B#4	Vss	cmodel	1.81187E-16	$X=5.52 $Y=6.2695
C6	A#2	Vss	cmodel	1.73276E-16	$X=4.213 $Y=6.321
C7	B#3	Vss	cmodel	1.68967E-16	$X=5.5505 $Y=3.5755
C8	A#4	Vss	cmodel	1.76855E-16	$X=4.213 $Y=3.5935
C9	B#1	Vss	cmodel	1.9481E-16	$X=6.688 $Y=4.859
C10	A#1	Vss	cmodel	3.55428E-16	$X=2.6105 $Y=4.6995
C11	Vdd#5	Vss	cmodel	6.07067E-16	$X=2.8505 $Y=2.045
C12	avC6#2	Vss	cmodel	2.53723E-16	$X=3.7605 $Y=2.8285
C13	Vout#5	Vss	cmodel	2.66079E-16	$X=3.4835 $Y=2.9265
C14	Vout#1	Vss	cmodel	4.43229E-16	$X=4.345 $Y=4.1065
C15	Vdd#2	Vss	cmodel	2.2238E-16	$X=4.048 $Y=4.282
C16	Vdd#4	Vss	cmodel	2.07379E-16	$X=3.7605 $Y=4.3435
C17	Vout#4	Vss	cmodel	2.98148E-16	$X=3.456 $Y=4.5045
C18	A#3	Vss	cmodel	1.77346E-16	$X=4.3145 $Y=5.174
C19	Vout#2	Vss	cmodel	2.34218E-16	$X=4.279 $Y=4.47
C20	Vout#3	Vss	cmodel	1.12759E-16	$X=3.4875 $Y=4.328
C21	B#2	Vss	cmodel	1.36168E-16	$X=5.816 $Y=5.2035
C22	Vdd#1	Vss	cmodel	2.1563E-16	$X=4.8155 $Y=6.834
*
*
.ENDS nand
*
